output/1_3PAS_1/Cargas_BT_SA02_1_3PAS_1.dss
New "Load.BT_2832903_75_M1" bus1="UC2832903.1.2.3.4" phases=3 conn=Delta model=2 kv=0.38 kw = 0.2482640 pf=0.92 status=variable vmaxpu=1.5 vminpu=0.92 daily="RU6_SA" 
New "Load.BT_2832903_75_M2" bus1="UC2832903.1.2.3.4" phases=3 conn=Delta model=3 kv=0.38 kw = 0.2482640 pf=0.92 status=variable vmaxpu=1.5 vminpu=0.92 daily="RU6_SA"
 
New "Load.BT_2832902_111_M1" bus1="UC2832902.2.4" phases=1 conn=Delta model=2 kv=0.22 kw = 0.2678343 pf=0.92 status=variable vmaxpu=1.5 vminpu=0.92 daily="RU8_SA" 
New "Load.BT_2832902_111_M2" bus1="UC2832902.2.4" phases=1 conn=Delta model=3 kv=0.22 kw = 0.2678343 pf=0.92 status=variable vmaxpu=1.5 vminpu=0.92 daily="RU8_SA"
 
New "Load.BT_2832901_517_M1" bus1="UC2832901.1.4" phases=1 conn=Delta model=2 kv=0.22 kw = 0.0000000 pf=0.92 status=variable vmaxpu=1.5 vminpu=0.92 daily="CO6_SA" 
New "Load.BT_2832901_517_M2" bus1="UC2832901.1.4" phases=1 conn=Delta model=3 kv=0.22 kw = 0.0000000 pf=0.92 status=variable vmaxpu=1.5 vminpu=0.92 daily="CO6_SA"
 
New "Load.BT_2832709_519_M1" bus1="UC2832709.1.4" phases=1 conn=Delta model=2 kv=0.22 kw = 0.0962580 pf=0.92 status=variable vmaxpu=1.5 vminpu=0.92 daily="RU7_SA" 
New "Load.BT_2832709_519_M2" bus1="UC2832709.1.4" phases=1 conn=Delta model=3 kv=0.22 kw = 0.0962580 pf=0.92 status=variable vmaxpu=1.5 vminpu=0.92 daily="RU7_SA"
 
New "Load.BT_2832708_561_M1" bus1="UC2832708.2.4" phases=1 conn=Delta model=2 kv=0.22 kw = 0.0000000 pf=0.92 status=variable vmaxpu=1.5 vminpu=0.92 daily="CO6_SA" 
New "Load.BT_2832708_561_M2" bus1="UC2832708.2.4" phases=1 conn=Delta model=3 kv=0.22 kw = 0.0000000 pf=0.92 status=variable vmaxpu=1.5 vminpu=0.92 daily="CO6_SA"
 
New "Load.BT_2832707_609_M1" bus1="UC2832707.1.4" phases=1 conn=Delta model=2 kv=0.22 kw = 0.2988055 pf=0.92 status=variable vmaxpu=1.5 vminpu=0.92 daily="RU3_SA" 
New "Load.BT_2832707_609_M2" bus1="UC2832707.1.4" phases=1 conn=Delta model=3 kv=0.22 kw = 0.2988055 pf=0.92 status=variable vmaxpu=1.5 vminpu=0.92 daily="RU3_SA"
 
New "Load.BT_2832706_630_M1" bus1="UC2832706.1.4" phases=1 conn=Delta model=2 kv=0.22 kw = 0.1333595 pf=0.92 status=variable vmaxpu=1.5 vminpu=0.92 daily="RU3_SA" 
New "Load.BT_2832706_630_M2" bus1="UC2832706.1.4" phases=1 conn=Delta model=3 kv=0.22 kw = 0.1333595 pf=0.92 status=variable vmaxpu=1.5 vminpu=0.92 daily="RU3_SA"
 
New "Load.BT_2832705_702_M1" bus1="UC2832705.1.4" phases=1 conn=Delta model=2 kv=0.22 kw = 0.2827623 pf=0.92 status=variable vmaxpu=1.5 vminpu=0.92 daily="RU3_SA" 
New "Load.BT_2832705_702_M2" bus1="UC2832705.1.4" phases=1 conn=Delta model=3 kv=0.22 kw = 0.2827623 pf=0.92 status=variable vmaxpu=1.5 vminpu=0.92 daily="RU3_SA"
 
New "Load.BT_2832704_713_M1" bus1="UC2832704.1.4" phases=1 conn=Delta model=2 kv=0.22 kw = 0.2994292 pf=0.92 status=variable vmaxpu=1.5 vminpu=0.92 daily="RU5_SA" 
New "Load.BT_2832704_713_M2" bus1="UC2832704.1.4" phases=1 conn=Delta model=3 kv=0.22 kw = 0.2994292 pf=0.92 status=variable vmaxpu=1.5 vminpu=0.92 daily="RU5_SA"
 
New "Load.BT_2832703_725_M1" bus1="UC2832703.1.4" phases=1 conn=Delta model=2 kv=0.22 kw = 0.2075044 pf=0.92 status=variable vmaxpu=1.5 vminpu=0.92 daily="RE6_SA" 
New "Load.BT_2832703_725_M2" bus1="UC2832703.1.4" phases=1 conn=Delta model=3 kv=0.22 kw = 0.2075044 pf=0.92 status=variable vmaxpu=1.5 vminpu=0.92 daily="RE6_SA"
 
New "Load.BT_2832702_740_M1" bus1="UC2832702.2.4" phases=1 conn=Delta model=2 kv=0.22 kw = 0.0486593 pf=0.92 status=variable vmaxpu=1.5 vminpu=0.92 daily="RU2_SA" 
New "Load.BT_2832702_740_M2" bus1="UC2832702.2.4" phases=1 conn=Delta model=3 kv=0.22 kw = 0.0486593 pf=0.92 status=variable vmaxpu=1.5 vminpu=0.92 daily="RU2_SA"
 
New "Load.BT_2831810_760_M1" bus1="UC2831810.1.4" phases=1 conn=Delta model=2 kv=0.22 kw = 0.1948666 pf=0.92 status=variable vmaxpu=1.5 vminpu=0.92 daily="RU5_SA" 
New "Load.BT_2831810_760_M2" bus1="UC2831810.1.4" phases=1 conn=Delta model=3 kv=0.22 kw = 0.1948666 pf=0.92 status=variable vmaxpu=1.5 vminpu=0.92 daily="RU5_SA"
 
New "Load.BT_2831808_800_M1" bus1="UC2831808.1.4" phases=1 conn=Delta model=2 kv=0.22 kw = 0.2419247 pf=0.92 status=variable vmaxpu=1.5 vminpu=0.92 daily="RE5_SA" 
New "Load.BT_2831808_800_M2" bus1="UC2831808.1.4" phases=1 conn=Delta model=3 kv=0.22 kw = 0.2419247 pf=0.92 status=variable vmaxpu=1.5 vminpu=0.92 daily="RE5_SA"
 
New "Load.BT_2831809_804_M1" bus1="UC2831809.1.2.3.4" phases=3 conn=Delta model=2 kv=0.38 kw = 0.4602687 pf=0.92 status=variable vmaxpu=1.5 vminpu=0.92 daily="RU2_SA" 
New "Load.BT_2831809_804_M2" bus1="UC2831809.1.2.3.4" phases=3 conn=Delta model=3 kv=0.38 kw = 0.4602687 pf=0.92 status=variable vmaxpu=1.5 vminpu=0.92 daily="RU2_SA"
 
New "Load.BT_2831807_839_M1" bus1="UC2831807.1.4" phases=1 conn=Delta model=2 kv=0.22 kw = 0.0897404 pf=0.92 status=variable vmaxpu=1.5 vminpu=0.92 daily="RU2_SA" 
New "Load.BT_2831807_839_M2" bus1="UC2831807.1.4" phases=1 conn=Delta model=3 kv=0.22 kw = 0.0897404 pf=0.92 status=variable vmaxpu=1.5 vminpu=0.92 daily="RU2_SA"
 
New "Load.BT_2831806_857_M1" bus1="UC2831806.2.4" phases=1 conn=Delta model=2 kv=0.22 kw = 0.5239357 pf=0.92 status=variable vmaxpu=1.5 vminpu=0.92 daily="RU7_SA" 
New "Load.BT_2831806_857_M2" bus1="UC2831806.2.4" phases=1 conn=Delta model=3 kv=0.22 kw = 0.5239357 pf=0.92 status=variable vmaxpu=1.5 vminpu=0.92 daily="RU7_SA"
 
New "Load.BT_2831805_1102_M1" bus1="UC2831805.1.4" phases=1 conn=Delta model=2 kv=0.22 kw = 0.2552303 pf=0.92 status=variable vmaxpu=1.5 vminpu=0.92 daily="RU8_SA" 
New "Load.BT_2831805_1102_M2" bus1="UC2831805.1.4" phases=1 conn=Delta model=3 kv=0.22 kw = 0.2552303 pf=0.92 status=variable vmaxpu=1.5 vminpu=0.92 daily="RU8_SA"
 
New "Load.BT_2831804_1170_M1" bus1="UC2831804.1.4" phases=1 conn=Delta model=2 kv=0.22 kw = 0.3065585 pf=0.92 status=variable vmaxpu=1.5 vminpu=0.92 daily="RU5_SA" 
New "Load.BT_2831804_1170_M2" bus1="UC2831804.1.4" phases=1 conn=Delta model=3 kv=0.22 kw = 0.3065585 pf=0.92 status=variable vmaxpu=1.5 vminpu=0.92 daily="RU5_SA"
 
New "Load.BT_2831803_1237_M1" bus1="UC2831803.2.4" phases=1 conn=Delta model=2 kv=0.22 kw = 0.0566362 pf=0.92 status=variable vmaxpu=1.5 vminpu=0.92 daily="RU2_SA" 
New "Load.BT_2831803_1237_M2" bus1="UC2831803.2.4" phases=1 conn=Delta model=3 kv=0.22 kw = 0.0566362 pf=0.92 status=variable vmaxpu=1.5 vminpu=0.92 daily="RU2_SA"
 
New "Load.BT_2831931_1259_M1" bus1="UC2831931.1.4" phases=1 conn=Delta model=2 kv=0.22 kw = 0.3228704 pf=0.92 status=variable vmaxpu=1.5 vminpu=0.92 daily="RU3_SA" 
New "Load.BT_2831931_1259_M2" bus1="UC2831931.1.4" phases=1 conn=Delta model=3 kv=0.22 kw = 0.3228704 pf=0.92 status=variable vmaxpu=1.5 vminpu=0.92 daily="RU3_SA"
 
New "Load.BT_2831802_1260_M1" bus1="UC2831802.1.2.4" phases=1 conn=Delta model=2 kv=0.44 kw = 1.1822815 pf=0.92 status=variable vmaxpu=1.5 vminpu=0.92 daily="RU6_SA" 
New "Load.BT_2831802_1260_M2" bus1="UC2831802.1.2.4" phases=1 conn=Delta model=3 kv=0.44 kw = 1.1822815 pf=0.92 status=variable vmaxpu=1.5 vminpu=0.92 daily="RU6_SA"
 
New "Load.BT_2831494_1546_M1" bus1="UC2831494.1.4" phases=1 conn=Delta model=2 kv=0.22 kw = 0.3230923 pf=0.92 status=variable vmaxpu=1.5 vminpu=0.92 daily="RE4_SA" 
New "Load.BT_2831494_1546_M2" bus1="UC2831494.1.4" phases=1 conn=Delta model=3 kv=0.22 kw = 0.3230923 pf=0.92 status=variable vmaxpu=1.5 vminpu=0.92 daily="RE4_SA"
 
New "Load.BT_2831492_1606_M1" bus1="UC2831492.2.4" phases=1 conn=Delta model=2 kv=0.22 kw = 0.3627487 pf=0.92 status=variable vmaxpu=1.5 vminpu=0.92 daily="RE1_SA" 
New "Load.BT_2831492_1606_M2" bus1="UC2831492.2.4" phases=1 conn=Delta model=3 kv=0.22 kw = 0.3627487 pf=0.92 status=variable vmaxpu=1.5 vminpu=0.92 daily="RE1_SA"
 
New "Load.BT_2831488_1693_M1" bus1="UC2831488.1.4" phases=1 conn=Delta model=2 kv=0.22 kw = 0.8852173 pf=0.92 status=variable vmaxpu=1.5 vminpu=0.92 daily="RU5_SA" 
New "Load.BT_2831488_1693_M2" bus1="UC2831488.1.4" phases=1 conn=Delta model=3 kv=0.22 kw = 0.8852173 pf=0.92 status=variable vmaxpu=1.5 vminpu=0.92 daily="RU5_SA"
 
New "Load.BT_2831489_1697_M1" bus1="UC2831489.1.4" phases=1 conn=Delta model=2 kv=0.22 kw = 0.0189059 pf=0.92 status=variable vmaxpu=1.5 vminpu=0.92 daily="RU8_SA" 
New "Load.BT_2831489_1697_M2" bus1="UC2831489.1.4" phases=1 conn=Delta model=3 kv=0.22 kw = 0.0189059 pf=0.92 status=variable vmaxpu=1.5 vminpu=0.92 daily="RU8_SA"
 
New "Load.BT_2831487_1726_M1" bus1="UC2831487.3.4" phases=1 conn=Delta model=2 kv=0.22 kw = 0.3728757 pf=0.92 status=variable vmaxpu=1.5 vminpu=0.92 daily="RE3_SA" 
New "Load.BT_2831487_1726_M2" bus1="UC2831487.3.4" phases=1 conn=Delta model=3 kv=0.22 kw = 0.3728757 pf=0.92 status=variable vmaxpu=1.5 vminpu=0.92 daily="RE3_SA"
 
New "Load.BT_2831486_1765_M1" bus1="UC2831486.1.4" phases=1 conn=Delta model=2 kv=0.22 kw = 0.4544838 pf=0.92 status=variable vmaxpu=1.5 vminpu=0.92 daily="RU7_SA" 
New "Load.BT_2831486_1765_M2" bus1="UC2831486.1.4" phases=1 conn=Delta model=3 kv=0.22 kw = 0.4544838 pf=0.92 status=variable vmaxpu=1.5 vminpu=0.92 daily="RU7_SA"
 
New "Load.BT_2831193_1771_M1" bus1="UC2831193.1.4" phases=1 conn=Delta model=2 kv=0.22 kw = 0.1491794 pf=0.92 status=variable vmaxpu=1.5 vminpu=0.92 daily="RE2_SA" 
New "Load.BT_2831193_1771_M2" bus1="UC2831193.1.4" phases=1 conn=Delta model=3 kv=0.22 kw = 0.1491794 pf=0.92 status=variable vmaxpu=1.5 vminpu=0.92 daily="RE2_SA"
 
New "Load.BT_2831191_1918_M1" bus1="UC2831191.2.4" phases=1 conn=Delta model=2 kv=0.22 kw = 0.0000000 pf=0.92 status=variable vmaxpu=1.5 vminpu=0.92 daily="CO7_SA" 
New "Load.BT_2831191_1918_M2" bus1="UC2831191.2.4" phases=1 conn=Delta model=3 kv=0.22 kw = 0.0000000 pf=0.92 status=variable vmaxpu=1.5 vminpu=0.92 daily="CO7_SA"
 
New "Load.BT_2830110_2284_M1" bus1="UC2830110.1.4" phases=1 conn=Delta model=2 kv=0.22 kw = 0.1957810 pf=0.92 status=variable vmaxpu=1.5 vminpu=0.92 daily="RE6_SA" 
New "Load.BT_2830110_2284_M2" bus1="UC2830110.1.4" phases=1 conn=Delta model=3 kv=0.22 kw = 0.1957810 pf=0.92 status=variable vmaxpu=1.5 vminpu=0.92 daily="RE6_SA"
 
New "Load.BT_2830109_2314_M1" bus1="UC2830109.2.4" phases=1 conn=Delta model=2 kv=0.22 kw = 0.2915722 pf=0.92 status=variable vmaxpu=1.5 vminpu=0.92 daily="RE7_SA" 
New "Load.BT_2830109_2314_M2" bus1="UC2830109.2.4" phases=1 conn=Delta model=3 kv=0.22 kw = 0.2915722 pf=0.92 status=variable vmaxpu=1.5 vminpu=0.92 daily="RE7_SA"
 
New "Load.BT_2830107_2326_M1" bus1="UC2830107.2.4" phases=1 conn=Delta model=2 kv=0.22 kw = 0.1112781 pf=0.92 status=variable vmaxpu=1.5 vminpu=0.92 daily="RU2_SA" 
New "Load.BT_2830107_2326_M2" bus1="UC2830107.2.4" phases=1 conn=Delta model=3 kv=0.22 kw = 0.1112781 pf=0.92 status=variable vmaxpu=1.5 vminpu=0.92 daily="RU2_SA"
 
New "Load.BT_2830108_2327_M1" bus1="UC2830108.1.4" phases=1 conn=Delta model=2 kv=0.22 kw = 0.1684541 pf=0.92 status=variable vmaxpu=1.5 vminpu=0.92 daily="RU3_SA" 
New "Load.BT_2830108_2327_M2" bus1="UC2830108.1.4" phases=1 conn=Delta model=3 kv=0.22 kw = 0.1684541 pf=0.92 status=variable vmaxpu=1.5 vminpu=0.92 daily="RU3_SA"
 
New "Load.BT_2830106_2504_M1" bus1="UC2830106.1.4" phases=1 conn=Delta model=2 kv=0.22 kw = 0.1514082 pf=0.92 status=variable vmaxpu=1.5 vminpu=0.92 daily="RU3_SA" 
New "Load.BT_2830106_2504_M2" bus1="UC2830106.1.4" phases=1 conn=Delta model=3 kv=0.22 kw = 0.1514082 pf=0.92 status=variable vmaxpu=1.5 vminpu=0.92 daily="RU3_SA"
 
New "Load.BT_2830105_2580_M1" bus1="UC2830105.1.4" phases=1 conn=Delta model=2 kv=0.22 kw = 0.7791003 pf=0.92 status=variable vmaxpu=1.5 vminpu=0.92 daily="RU3_SA" 
New "Load.BT_2830105_2580_M2" bus1="UC2830105.1.4" phases=1 conn=Delta model=3 kv=0.22 kw = 0.7791003 pf=0.92 status=variable vmaxpu=1.5 vminpu=0.92 daily="RU3_SA"
 
New "Load.BT_2830104_2723_M1" bus1="UC2830104.1.4" phases=1 conn=Delta model=2 kv=0.22 kw = 0.0000000 pf=0.92 status=variable vmaxpu=1.5 vminpu=0.92 daily="RU1_SA" 
New "Load.BT_2830104_2723_M2" bus1="UC2830104.1.4" phases=1 conn=Delta model=3 kv=0.22 kw = 0.0000000 pf=0.92 status=variable vmaxpu=1.5 vminpu=0.92 daily="RU1_SA"
 
New "Load.BT_2830103_2803_M1" bus1="UC2830103.1.4" phases=1 conn=Delta model=2 kv=0.22 kw = 0.2891625 pf=0.92 status=variable vmaxpu=1.5 vminpu=0.92 daily="RE7_SA" 
New "Load.BT_2830103_2803_M2" bus1="UC2830103.1.4" phases=1 conn=Delta model=3 kv=0.22 kw = 0.2891625 pf=0.92 status=variable vmaxpu=1.5 vminpu=0.92 daily="RE7_SA"
 
New "Load.BT_2830101_3042_M1" bus1="UC2830101.2.4" phases=1 conn=Delta model=2 kv=0.22 kw = 0.2210073 pf=0.92 status=variable vmaxpu=1.5 vminpu=0.92 daily="RU5_SA" 
New "Load.BT_2830101_3042_M2" bus1="UC2830101.2.4" phases=1 conn=Delta model=3 kv=0.22 kw = 0.2210073 pf=0.92 status=variable vmaxpu=1.5 vminpu=0.92 daily="RU5_SA"
 
New "Load.BT_2828520_3114_M1" bus1="UC2828520.2.4" phases=1 conn=Delta model=2 kv=0.22 kw = 0.3200462 pf=0.92 status=variable vmaxpu=1.5 vminpu=0.92 daily="RE5_SA" 
New "Load.BT_2828520_3114_M2" bus1="UC2828520.2.4" phases=1 conn=Delta model=3 kv=0.22 kw = 0.3200462 pf=0.92 status=variable vmaxpu=1.5 vminpu=0.92 daily="RE5_SA"
 
New "Load.BT_2828516_3235_M1" bus1="UC2828516.1.2.3.4" phases=3 conn=Delta model=2 kv=0.38 kw = 1.0059544 pf=0.92 status=variable vmaxpu=1.5 vminpu=0.92 daily="IN5_SA" 
New "Load.BT_2828516_3235_M2" bus1="UC2828516.1.2.3.4" phases=3 conn=Delta model=3 kv=0.38 kw = 1.0059544 pf=0.92 status=variable vmaxpu=1.5 vminpu=0.92 daily="IN5_SA"
 
New "Load.BT_2828513_3350_M1" bus1="UC2828513.1.4" phases=1 conn=Delta model=2 kv=0.22 kw = 0.1063689 pf=0.92 status=variable vmaxpu=1.5 vminpu=0.92 daily="RE3_SA" 
New "Load.BT_2828513_3350_M2" bus1="UC2828513.1.4" phases=1 conn=Delta model=3 kv=0.22 kw = 0.1063689 pf=0.92 status=variable vmaxpu=1.5 vminpu=0.92 daily="RE3_SA"
 
New "Load.BT_2828518_3371_M1" bus1="UC2828518.1.4" phases=1 conn=Delta model=2 kv=0.22 kw = 0.0000000 pf=0.92 status=variable vmaxpu=1.5 vminpu=0.92 daily="RU4_SA" 
New "Load.BT_2828518_3371_M2" bus1="UC2828518.1.4" phases=1 conn=Delta model=3 kv=0.22 kw = 0.0000000 pf=0.92 status=variable vmaxpu=1.5 vminpu=0.92 daily="RU4_SA"
 
New "Load.BT_2830102_3481_M1" bus1="UC2830102.1.4" phases=1 conn=Delta model=2 kv=0.22 kw = 0.1544163 pf=0.92 status=variable vmaxpu=1.5 vminpu=0.92 daily="RU3_SA" 
New "Load.BT_2830102_3481_M2" bus1="UC2830102.1.4" phases=1 conn=Delta model=3 kv=0.22 kw = 0.1544163 pf=0.92 status=variable vmaxpu=1.5 vminpu=0.92 daily="RU3_SA"
 
New "Load.BT_2828509_3595_M1" bus1="UC2828509.1.4" phases=1 conn=Delta model=2 kv=0.22 kw = 0.3389779 pf=0.92 status=variable vmaxpu=1.5 vminpu=0.92 daily="RE3_SA" 
New "Load.BT_2828509_3595_M2" bus1="UC2828509.1.4" phases=1 conn=Delta model=3 kv=0.22 kw = 0.3389779 pf=0.92 status=variable vmaxpu=1.5 vminpu=0.92 daily="RE3_SA"
 
New "Load.BT_2828387_3688_M1" bus1="UC2828387.2.4" phases=1 conn=Delta model=2 kv=0.22 kw = 0.2175866 pf=0.92 status=variable vmaxpu=1.5 vminpu=0.92 daily="RU3_SA" 
New "Load.BT_2828387_3688_M2" bus1="UC2828387.2.4" phases=1 conn=Delta model=3 kv=0.22 kw = 0.2175866 pf=0.92 status=variable vmaxpu=1.5 vminpu=0.92 daily="RU3_SA"
 
New "Load.BT_2828385_3783_M1" bus1="UC2828385.3.4" phases=1 conn=Delta model=2 kv=0.22 kw = 0.2128419 pf=0.92 status=variable vmaxpu=1.5 vminpu=0.92 daily="RE2_SA" 
New "Load.BT_2828385_3783_M2" bus1="UC2828385.3.4" phases=1 conn=Delta model=3 kv=0.22 kw = 0.2128419 pf=0.92 status=variable vmaxpu=1.5 vminpu=0.92 daily="RE2_SA"
 
New "Load.BT_2828384_3808_M1" bus1="UC2828384.1.2.3.4" phases=3 conn=Delta model=2 kv=0.38 kw = 0.0374711 pf=0.92 status=variable vmaxpu=1.5 vminpu=0.92 daily="CO5_SA" 
New "Load.BT_2828384_3808_M2" bus1="UC2828384.1.2.3.4" phases=3 conn=Delta model=3 kv=0.38 kw = 0.0374711 pf=0.92 status=variable vmaxpu=1.5 vminpu=0.92 daily="CO5_SA"
 
New "Load.BT_2828399_4171_M1" bus1="UC2828399.1.2.4" phases=1 conn=Delta model=2 kv=0.44 kw = 0.8317478 pf=0.92 status=variable vmaxpu=1.5 vminpu=0.92 daily="RU5_SA" 
New "Load.BT_2828399_4171_M2" bus1="UC2828399.1.2.4" phases=1 conn=Delta model=3 kv=0.44 kw = 0.8317478 pf=0.92 status=variable vmaxpu=1.5 vminpu=0.92 daily="RU5_SA"
 
New "Load.BT_2828396_4226_M1" bus1="UC2828396.1.4" phases=1 conn=Delta model=2 kv=0.22 kw = 0.2276136 pf=0.92 status=variable vmaxpu=1.5 vminpu=0.92 daily="RU3_SA" 
New "Load.BT_2828396_4226_M2" bus1="UC2828396.1.4" phases=1 conn=Delta model=3 kv=0.22 kw = 0.2276136 pf=0.92 status=variable vmaxpu=1.5 vminpu=0.92 daily="RU3_SA"
 
New "Load.BT_2828517_4253_M1" bus1="UC2828517.1.4" phases=1 conn=Delta model=2 kv=0.22 kw = 0.0190514 pf=0.92 status=variable vmaxpu=1.5 vminpu=0.92 daily="RU3_SA" 
New "Load.BT_2828517_4253_M2" bus1="UC2828517.1.4" phases=1 conn=Delta model=3 kv=0.22 kw = 0.0190514 pf=0.92 status=variable vmaxpu=1.5 vminpu=0.92 daily="RU3_SA"
 
New "Load.BT_2827943_4541_M1" bus1="UC2827943.2.4" phases=1 conn=Delta model=2 kv=0.22 kw = 0.0000000 pf=0.92 status=variable vmaxpu=1.5 vminpu=0.92 daily="CO7_SA" 
New "Load.BT_2827943_4541_M2" bus1="UC2827943.2.4" phases=1 conn=Delta model=3 kv=0.22 kw = 0.0000000 pf=0.92 status=variable vmaxpu=1.5 vminpu=0.92 daily="CO7_SA"
 
New "Load.BT_2827935_4579_M1" bus1="UC2827935.1.4" phases=1 conn=Delta model=2 kv=0.22 kw = 0.4284600 pf=0.92 status=variable vmaxpu=1.5 vminpu=0.92 daily="RU4_SA" 
New "Load.BT_2827935_4579_M2" bus1="UC2827935.1.4" phases=1 conn=Delta model=3 kv=0.22 kw = 0.4284600 pf=0.92 status=variable vmaxpu=1.5 vminpu=0.92 daily="RU4_SA"
 
New "Load.BT_2827090_4587_M1" bus1="UC2827090.2.4" phases=1 conn=Delta model=2 kv=0.22 kw = 0.0111932 pf=0.92 status=variable vmaxpu=1.5 vminpu=0.92 daily="RU1_SA" 
New "Load.BT_2827090_4587_M2" bus1="UC2827090.2.4" phases=1 conn=Delta model=3 kv=0.22 kw = 0.0111932 pf=0.92 status=variable vmaxpu=1.5 vminpu=0.92 daily="RU1_SA"
 
New "Load.BT_2827097_4633_M1" bus1="UC2827097.2.4" phases=1 conn=Delta model=2 kv=0.22 kw = 0.0000000 pf=0.92 status=variable vmaxpu=1.5 vminpu=0.92 daily="RU2_SA" 
New "Load.BT_2827097_4633_M2" bus1="UC2827097.2.4" phases=1 conn=Delta model=3 kv=0.22 kw = 0.0000000 pf=0.92 status=variable vmaxpu=1.5 vminpu=0.92 daily="RU2_SA"
 
New "Load.BT_2827095_4823_M1" bus1="UC2827095.1.4" phases=1 conn=Delta model=2 kv=0.22 kw = 0.2079370 pf=0.92 status=variable vmaxpu=1.5 vminpu=0.92 daily="RU5_SA" 
New "Load.BT_2827095_4823_M2" bus1="UC2827095.1.4" phases=1 conn=Delta model=3 kv=0.22 kw = 0.2079370 pf=0.92 status=variable vmaxpu=1.5 vminpu=0.92 daily="RU5_SA"
 
New "Load.BT_2827086_4873_M1" bus1="UC2827086.1.4" phases=1 conn=Delta model=2 kv=0.22 kw = 0.2442018 pf=0.92 status=variable vmaxpu=1.5 vminpu=0.92 daily="RU8_SA" 
New "Load.BT_2827086_4873_M2" bus1="UC2827086.1.4" phases=1 conn=Delta model=3 kv=0.22 kw = 0.2442018 pf=0.92 status=variable vmaxpu=1.5 vminpu=0.92 daily="RU8_SA"
 
New "Load.BT_2827093_4874_M1" bus1="UC2827093.1.4" phases=1 conn=Delta model=2 kv=0.22 kw = 0.0060488 pf=0.92 status=variable vmaxpu=1.5 vminpu=0.92 daily="RU1_SA" 
New "Load.BT_2827093_4874_M2" bus1="UC2827093.1.4" phases=1 conn=Delta model=3 kv=0.22 kw = 0.0060488 pf=0.92 status=variable vmaxpu=1.5 vminpu=0.92 daily="RU1_SA"
 
New "Load.BT_2826236_4986_M1" bus1="UC2826236.1.4" phases=1 conn=Delta model=2 kv=0.22 kw = 0.3920754 pf=0.92 status=variable vmaxpu=1.5 vminpu=0.92 daily="RU6_SA" 
New "Load.BT_2826236_4986_M2" bus1="UC2826236.1.4" phases=1 conn=Delta model=3 kv=0.22 kw = 0.3920754 pf=0.92 status=variable vmaxpu=1.5 vminpu=0.92 daily="RU6_SA"
 
New "Load.BT_2826239_5009_M1" bus1="UC2826239.1.4" phases=1 conn=Delta model=2 kv=0.22 kw = 0.0701970 pf=0.92 status=variable vmaxpu=1.5 vminpu=0.92 daily="RU2_SA" 
New "Load.BT_2826239_5009_M2" bus1="UC2826239.1.4" phases=1 conn=Delta model=3 kv=0.22 kw = 0.0701970 pf=0.92 status=variable vmaxpu=1.5 vminpu=0.92 daily="RU2_SA"
 
New "Load.BT_2827940_5131_M1" bus1="UC2827940.1.4" phases=1 conn=Delta model=2 kv=0.22 kw = 0.1604581 pf=0.92 status=variable vmaxpu=1.5 vminpu=0.92 daily="RE8_SA" 
New "Load.BT_2827940_5131_M2" bus1="UC2827940.1.4" phases=1 conn=Delta model=3 kv=0.22 kw = 0.1604581 pf=0.92 status=variable vmaxpu=1.5 vminpu=0.92 daily="RE8_SA"
 
New "Load.BT_2826215_5270_M1" bus1="UC2826215.1.4" phases=1 conn=Delta model=2 kv=0.22 kw = 0.3935892 pf=0.92 status=variable vmaxpu=1.5 vminpu=0.92 daily="RU6_SA" 
New "Load.BT_2826215_5270_M2" bus1="UC2826215.1.4" phases=1 conn=Delta model=3 kv=0.22 kw = 0.3935892 pf=0.92 status=variable vmaxpu=1.5 vminpu=0.92 daily="RU6_SA"
 
New "Load.BT_3205284_5293_M1" bus1="UC3205284.1.4" phases=1 conn=Delta model=2 kv=0.22 kw = 0.0000000 pf=0.92 status=variable vmaxpu=1.5 vminpu=0.92 daily="RU7_SA" 
New "Load.BT_3205284_5293_M2" bus1="UC3205284.1.4" phases=1 conn=Delta model=3 kv=0.22 kw = 0.0000000 pf=0.92 status=variable vmaxpu=1.5 vminpu=0.92 daily="RU7_SA"
 
New "Load.BT_3205285_5294_M1" bus1="UC3205285.1.4" phases=1 conn=Delta model=2 kv=0.22 kw = 0.6261873 pf=0.92 status=variable vmaxpu=1.5 vminpu=0.92 daily="RU5_SA" 
New "Load.BT_3205285_5294_M2" bus1="UC3205285.1.4" phases=1 conn=Delta model=3 kv=0.22 kw = 0.6261873 pf=0.92 status=variable vmaxpu=1.5 vminpu=0.92 daily="RU5_SA"
 
New "Load.BT_3205286_5295_M1" bus1="UC3205286.1.4" phases=1 conn=Delta model=2 kv=0.22 kw = 0.0961052 pf=0.92 status=variable vmaxpu=1.5 vminpu=0.92 daily="RU8_SA" 
New "Load.BT_3205286_5295_M2" bus1="UC3205286.1.4" phases=1 conn=Delta model=3 kv=0.22 kw = 0.0961052 pf=0.92 status=variable vmaxpu=1.5 vminpu=0.92 daily="RU8_SA"
 
New "Load.BT_2826225_5452_M1" bus1="UC2826225.1.2.3.4" phases=3 conn=Delta model=2 kv=0.38 kw = 0.2473464 pf=0.92 status=variable vmaxpu=1.5 vminpu=0.92 daily="RU7_SA" 
New "Load.BT_2826225_5452_M2" bus1="UC2826225.1.2.3.4" phases=3 conn=Delta model=3 kv=0.38 kw = 0.2473464 pf=0.92 status=variable vmaxpu=1.5 vminpu=0.92 daily="RU7_SA"
 
New "Load.BT_2805439_5989_M1" bus1="UC2805439.2.4" phases=1 conn=Delta model=2 kv=0.22 kw = 0.0211992 pf=0.92 status=variable vmaxpu=1.5 vminpu=0.92 daily="RU1_SA" 
New "Load.BT_2805439_5989_M2" bus1="UC2805439.2.4" phases=1 conn=Delta model=3 kv=0.22 kw = 0.0211992 pf=0.92 status=variable vmaxpu=1.5 vminpu=0.92 daily="RU1_SA"
 
New "Load.BT_2805440_5990_M1" bus1="UC2805440.2.4" phases=1 conn=Delta model=2 kv=0.22 kw = 0.2541934 pf=0.92 status=variable vmaxpu=1.5 vminpu=0.92 daily="RU4_SA" 
New "Load.BT_2805440_5990_M2" bus1="UC2805440.2.4" phases=1 conn=Delta model=3 kv=0.22 kw = 0.2541934 pf=0.92 status=variable vmaxpu=1.5 vminpu=0.92 daily="RU4_SA"
 
New "Load.BT_2805441_5991_M1" bus1="UC2805441.1.4" phases=1 conn=Delta model=2 kv=0.22 kw = 0.1718022 pf=0.92 status=variable vmaxpu=1.5 vminpu=0.92 daily="RU7_SA" 
New "Load.BT_2805441_5991_M2" bus1="UC2805441.1.4" phases=1 conn=Delta model=3 kv=0.22 kw = 0.1718022 pf=0.92 status=variable vmaxpu=1.5 vminpu=0.92 daily="RU7_SA"
 
New "Load.BT_2805443_5992_M1" bus1="UC2805443.1.4" phases=1 conn=Delta model=2 kv=0.22 kw = 0.2982195 pf=0.92 status=variable vmaxpu=1.5 vminpu=0.92 daily="RU6_SA" 
New "Load.BT_2805443_5992_M2" bus1="UC2805443.1.4" phases=1 conn=Delta model=3 kv=0.22 kw = 0.2982195 pf=0.92 status=variable vmaxpu=1.5 vminpu=0.92 daily="RU6_SA"
 
New "Load.BT_2805444_5993_M1" bus1="UC2805444.1.4" phases=1 conn=Delta model=2 kv=0.22 kw = 0.4703888 pf=0.92 status=variable vmaxpu=1.5 vminpu=0.92 daily="RU4_SA" 
New "Load.BT_2805444_5993_M2" bus1="UC2805444.1.4" phases=1 conn=Delta model=3 kv=0.22 kw = 0.4703888 pf=0.92 status=variable vmaxpu=1.5 vminpu=0.92 daily="RU4_SA"
 
New "Load.BT_2819389_6030_M1" bus1="UC2819389.1.4" phases=1 conn=Delta model=2 kv=0.22 kw = 0.1821283 pf=0.92 status=variable vmaxpu=1.5 vminpu=0.92 daily="RU4_SA" 
New "Load.BT_2819389_6030_M2" bus1="UC2819389.1.4" phases=1 conn=Delta model=3 kv=0.22 kw = 0.1821283 pf=0.92 status=variable vmaxpu=1.5 vminpu=0.92 daily="RU4_SA"
 
New "Load.BT_2819373_6040_M1" bus1="UC2819373.1.4" phases=1 conn=Delta model=2 kv=0.22 kw = 0.5608765 pf=0.92 status=variable vmaxpu=1.5 vminpu=0.92 daily="RU8_SA" 
New "Load.BT_2819373_6040_M2" bus1="UC2819373.1.4" phases=1 conn=Delta model=3 kv=0.22 kw = 0.5608765 pf=0.92 status=variable vmaxpu=1.5 vminpu=0.92 daily="RU8_SA"
 
New "Load.BT_2819376_6042_M1" bus1="UC2819376.1.2.3.4" phases=3 conn=Delta model=2 kv=0.38 kw = 2.3580542 pf=0.92 status=variable vmaxpu=1.5 vminpu=0.92 daily="CO4_SA" 
New "Load.BT_2819376_6042_M2" bus1="UC2819376.1.2.3.4" phases=3 conn=Delta model=3 kv=0.38 kw = 2.3580542 pf=0.92 status=variable vmaxpu=1.5 vminpu=0.92 daily="CO4_SA"
 
New "Load.BT_2819358_6089_M1" bus1="UC2819358.1.4" phases=1 conn=Delta model=2 kv=0.22 kw = 0.0121104 pf=0.92 status=variable vmaxpu=1.5 vminpu=0.92 daily="RU6_SA" 
New "Load.BT_2819358_6089_M2" bus1="UC2819358.1.4" phases=1 conn=Delta model=3 kv=0.22 kw = 0.0121104 pf=0.92 status=variable vmaxpu=1.5 vminpu=0.92 daily="RU6_SA"
 
New "Load.BT_2819362_6090_M1" bus1="UC2819362.1.4" phases=1 conn=Delta model=2 kv=0.22 kw = 0.1574244 pf=0.92 status=variable vmaxpu=1.5 vminpu=0.92 daily="RU3_SA" 
New "Load.BT_2819362_6090_M2" bus1="UC2819362.1.4" phases=1 conn=Delta model=3 kv=0.22 kw = 0.1574244 pf=0.92 status=variable vmaxpu=1.5 vminpu=0.92 daily="RU3_SA"
 
New "Load.BT_2819368_6091_M1" bus1="UC2819368.1.4" phases=1 conn=Delta model=2 kv=0.22 kw = 0.1068908 pf=0.92 status=variable vmaxpu=1.5 vminpu=0.92 daily="RU2_SA" 
New "Load.BT_2819368_6091_M2" bus1="UC2819368.1.4" phases=1 conn=Delta model=3 kv=0.22 kw = 0.1068908 pf=0.92 status=variable vmaxpu=1.5 vminpu=0.92 daily="RU2_SA"
 
New "Load.BT_2805428_6119_M1" bus1="UC2805428.2.4" phases=1 conn=Delta model=2 kv=0.22 kw = 0.0307112 pf=0.92 status=variable vmaxpu=1.5 vminpu=0.92 daily="RU2_SA" 
New "Load.BT_2805428_6119_M2" bus1="UC2805428.2.4" phases=1 conn=Delta model=3 kv=0.22 kw = 0.0307112 pf=0.92 status=variable vmaxpu=1.5 vminpu=0.92 daily="RU2_SA"
 
New "Load.BT_2805429_6120_M1" bus1="UC2805429.1.4" phases=1 conn=Delta model=2 kv=0.22 kw = 0.0749831 pf=0.92 status=variable vmaxpu=1.5 vminpu=0.92 daily="RU2_SA" 
New "Load.BT_2805429_6120_M2" bus1="UC2805429.1.4" phases=1 conn=Delta model=3 kv=0.22 kw = 0.0749831 pf=0.92 status=variable vmaxpu=1.5 vminpu=0.92 daily="RU2_SA"
 
New "Load.BT_2805430_6121_M1" bus1="UC2805430.2.4" phases=1 conn=Delta model=2 kv=0.22 kw = 0.2489523 pf=0.92 status=variable vmaxpu=1.5 vminpu=0.92 daily="RU4_SA" 
New "Load.BT_2805430_6121_M2" bus1="UC2805430.2.4" phases=1 conn=Delta model=3 kv=0.22 kw = 0.2489523 pf=0.92 status=variable vmaxpu=1.5 vminpu=0.92 daily="RU4_SA"
 
New "Load.BT_2805431_6122_M1" bus1="UC2805431.1.2.3.4" phases=3 conn=Delta model=2 kv=0.38 kw = 0.0861045 pf=0.92 status=variable vmaxpu=1.5 vminpu=0.92 daily="CO6_SA" 
New "Load.BT_2805431_6122_M2" bus1="UC2805431.1.2.3.4" phases=3 conn=Delta model=3 kv=0.38 kw = 0.0861045 pf=0.92 status=variable vmaxpu=1.5 vminpu=0.92 daily="CO6_SA"
 
New "Load.BT_2805432_6123_M1" bus1="UC2805432.2.4" phases=1 conn=Delta model=2 kv=0.22 kw = 0.0252695 pf=0.92 status=variable vmaxpu=1.5 vminpu=0.92 daily="RU1_SA" 
New "Load.BT_2805432_6123_M2" bus1="UC2805432.2.4" phases=1 conn=Delta model=3 kv=0.22 kw = 0.0252695 pf=0.92 status=variable vmaxpu=1.5 vminpu=0.92 daily="RU1_SA"
 
New "Load.BT_2805434_6124_M1" bus1="UC2805434.1.4" phases=1 conn=Delta model=2 kv=0.22 kw = 0.0403535 pf=0.92 status=variable vmaxpu=1.5 vminpu=0.92 daily="CO5_SA" 
New "Load.BT_2805434_6124_M2" bus1="UC2805434.1.4" phases=1 conn=Delta model=3 kv=0.22 kw = 0.0403535 pf=0.92 status=variable vmaxpu=1.5 vminpu=0.92 daily="CO5_SA"
 
New "Load.BT_2805435_6125_M1" bus1="UC2805435.1.4" phases=1 conn=Delta model=2 kv=0.22 kw = 0.2293248 pf=0.92 status=variable vmaxpu=1.5 vminpu=0.92 daily="RU5_SA" 
New "Load.BT_2805435_6125_M2" bus1="UC2805435.1.4" phases=1 conn=Delta model=3 kv=0.22 kw = 0.2293248 pf=0.92 status=variable vmaxpu=1.5 vminpu=0.92 daily="RU5_SA"
 
New "Load.BT_2819369_6126_M1" bus1="UC2819369.1.4" phases=1 conn=Delta model=2 kv=0.22 kw = 0.0000000 pf=0.92 status=variable vmaxpu=1.5 vminpu=0.92 daily="PP6_SA" 
New "Load.BT_2819369_6126_M2" bus1="UC2819369.1.4" phases=1 conn=Delta model=3 kv=0.22 kw = 0.0000000 pf=0.92 status=variable vmaxpu=1.5 vminpu=0.92 daily="PP6_SA"
 
New "Load.BT_2819372_6127_M1" bus1="UC2819372.2.4" phases=1 conn=Delta model=2 kv=0.22 kw = 0.3707219 pf=0.92 status=variable vmaxpu=1.5 vminpu=0.92 daily="RU5_SA" 
New "Load.BT_2819372_6127_M2" bus1="UC2819372.2.4" phases=1 conn=Delta model=3 kv=0.22 kw = 0.3707219 pf=0.92 status=variable vmaxpu=1.5 vminpu=0.92 daily="RU5_SA"
 
New "Load.BT_2805421_6163_M1" bus1="UC2805421.1.4" phases=1 conn=Delta model=2 kv=0.22 kw = 0.0335796 pf=0.92 status=variable vmaxpu=1.5 vminpu=0.92 daily="RU1_SA" 
New "Load.BT_2805421_6163_M2" bus1="UC2805421.1.4" phases=1 conn=Delta model=3 kv=0.22 kw = 0.0335796 pf=0.92 status=variable vmaxpu=1.5 vminpu=0.92 daily="RU1_SA"
 
New "Load.BT_2805425_6164_M1" bus1="UC2805425.2.4" phases=1 conn=Delta model=2 kv=0.22 kw = 0.2830194 pf=0.92 status=variable vmaxpu=1.5 vminpu=0.92 daily="RU4_SA" 
New "Load.BT_2805425_6164_M2" bus1="UC2805425.2.4" phases=1 conn=Delta model=3 kv=0.22 kw = 0.2830194 pf=0.92 status=variable vmaxpu=1.5 vminpu=0.92 daily="RU4_SA"
 
New "Load.BT_2805426_6165_M1" bus1="UC2805426.1.4" phases=1 conn=Delta model=2 kv=0.22 kw = 0.0093277 pf=0.92 status=variable vmaxpu=1.5 vminpu=0.92 daily="RU1_SA" 
New "Load.BT_2805426_6165_M2" bus1="UC2805426.1.4" phases=1 conn=Delta model=3 kv=0.22 kw = 0.0093277 pf=0.92 status=variable vmaxpu=1.5 vminpu=0.92 daily="RU1_SA"
 
New "Load.BT_2819347_6166_M1" bus1="UC2819347.1.4" phases=1 conn=Delta model=2 kv=0.22 kw = 0.1861980 pf=0.92 status=variable vmaxpu=1.5 vminpu=0.92 daily="RU6_SA" 
New "Load.BT_2819347_6166_M2" bus1="UC2819347.1.4" phases=1 conn=Delta model=3 kv=0.22 kw = 0.1861980 pf=0.92 status=variable vmaxpu=1.5 vminpu=0.92 daily="RU6_SA"
 
New "Load.BT_2819356_6168_M1" bus1="UC2819356.3.4" phases=1 conn=Delta model=2 kv=0.22 kw = 0.7786951 pf=0.92 status=variable vmaxpu=1.5 vminpu=0.92 daily="RE5_SA" 
New "Load.BT_2819356_6168_M2" bus1="UC2819356.3.4" phases=1 conn=Delta model=3 kv=0.22 kw = 0.7786951 pf=0.92 status=variable vmaxpu=1.5 vminpu=0.92 daily="RE5_SA"
 
New "Load.BT_2819344_6220_M1" bus1="UC2819344.1.2.4" phases=1 conn=Delta model=2 kv=0.44 kw = 0.0468079 pf=0.92 status=variable vmaxpu=1.5 vminpu=0.92 daily="RU1_SA" 
New "Load.BT_2819344_6220_M2" bus1="UC2819344.1.2.4" phases=1 conn=Delta model=3 kv=0.44 kw = 0.0468079 pf=0.92 status=variable vmaxpu=1.5 vminpu=0.92 daily="RU1_SA"
 
New "Load.BT_2806082_6242_M1" bus1="UC2806082.1.4" phases=1 conn=Delta model=2 kv=0.22 kw = 0.0020054 pf=0.92 status=variable vmaxpu=1.5 vminpu=0.92 daily="RU3_SA" 
New "Load.BT_2806082_6242_M2" bus1="UC2806082.1.4" phases=1 conn=Delta model=3 kv=0.22 kw = 0.0020054 pf=0.92 status=variable vmaxpu=1.5 vminpu=0.92 daily="RU3_SA"
 
New "Load.BT_2806084_6243_M1" bus1="UC2806084.2.4" phases=1 conn=Delta model=2 kv=0.22 kw = 0.0188815 pf=0.92 status=variable vmaxpu=1.5 vminpu=0.92 daily="RU1_SA" 
New "Load.BT_2806084_6243_M2" bus1="UC2806084.2.4" phases=1 conn=Delta model=3 kv=0.22 kw = 0.0188815 pf=0.92 status=variable vmaxpu=1.5 vminpu=0.92 daily="RU1_SA"
 
New "Load.BT_2806086_6244_M1" bus1="UC2806086.1.4" phases=1 conn=Delta model=2 kv=0.22 kw = 0.0000000 pf=0.92 status=variable vmaxpu=1.5 vminpu=0.92 daily="RU2_SA" 
New "Load.BT_2806086_6244_M2" bus1="UC2806086.1.4" phases=1 conn=Delta model=3 kv=0.22 kw = 0.0000000 pf=0.92 status=variable vmaxpu=1.5 vminpu=0.92 daily="RU2_SA"
 
New "Load.BT_2806088_6245_M1" bus1="UC2806088.2.4" phases=1 conn=Delta model=2 kv=0.22 kw = 0.4507347 pf=0.92 status=variable vmaxpu=1.5 vminpu=0.92 daily="RU4_SA" 
New "Load.BT_2806088_6245_M2" bus1="UC2806088.2.4" phases=1 conn=Delta model=3 kv=0.22 kw = 0.4507347 pf=0.92 status=variable vmaxpu=1.5 vminpu=0.92 daily="RU4_SA"
 
New "Load.BT_2822265_6246_M1" bus1="UC2822265.1.4" phases=1 conn=Delta model=2 kv=0.22 kw = 0.3423859 pf=0.92 status=variable vmaxpu=1.5 vminpu=0.92 daily="RU7_SA" 
New "Load.BT_2822265_6246_M2" bus1="UC2822265.1.4" phases=1 conn=Delta model=3 kv=0.22 kw = 0.3423859 pf=0.92 status=variable vmaxpu=1.5 vminpu=0.92 daily="RU7_SA"
 
New "Load.BT_2823447_6248_M1" bus1="UC2823447.1.4" phases=1 conn=Delta model=2 kv=0.22 kw = 0.0055966 pf=0.92 status=variable vmaxpu=1.5 vminpu=0.92 daily="RU1_SA" 
New "Load.BT_2823447_6248_M2" bus1="UC2823447.1.4" phases=1 conn=Delta model=3 kv=0.22 kw = 0.0055966 pf=0.92 status=variable vmaxpu=1.5 vminpu=0.92 daily="RU1_SA"
 
New "Load.BT_2823477_6249_M1" bus1="UC2823477.2.4" phases=1 conn=Delta model=2 kv=0.22 kw = 0.3679920 pf=0.92 status=variable vmaxpu=1.5 vminpu=0.92 daily="RU3_SA" 
New "Load.BT_2823477_6249_M2" bus1="UC2823477.2.4" phases=1 conn=Delta model=3 kv=0.22 kw = 0.3679920 pf=0.92 status=variable vmaxpu=1.5 vminpu=0.92 daily="RU3_SA"
 
New "Load.BT_2823635_6250_M1" bus1="UC2823635.1.4" phases=1 conn=Delta model=2 kv=0.22 kw = 0.0048738 pf=0.92 status=variable vmaxpu=1.5 vminpu=0.92 daily="RU7_SA" 
New "Load.BT_2823635_6250_M2" bus1="UC2823635.1.4" phases=1 conn=Delta model=3 kv=0.22 kw = 0.0048738 pf=0.92 status=variable vmaxpu=1.5 vminpu=0.92 daily="RU7_SA"
 
New "Load.BT_2806081_6260_M1" bus1="UC2806081.1.4" phases=1 conn=Delta model=2 kv=0.22 kw = 0.0881450 pf=0.92 status=variable vmaxpu=1.5 vminpu=0.92 daily="RU2_SA" 
New "Load.BT_2806081_6260_M2" bus1="UC2806081.1.4" phases=1 conn=Delta model=3 kv=0.22 kw = 0.0881450 pf=0.92 status=variable vmaxpu=1.5 vminpu=0.92 daily="RU2_SA"
 
New "Load.BT_2806075_6276_M1" bus1="UC2806075.1.2.4" phases=1 conn=Delta model=2 kv=0.44 kw = 2.3704813 pf=0.92 status=variable vmaxpu=1.5 vminpu=0.92 daily="RU5_SA" 
New "Load.BT_2806075_6276_M2" bus1="UC2806075.1.2.4" phases=1 conn=Delta model=3 kv=0.44 kw = 2.3704813 pf=0.92 status=variable vmaxpu=1.5 vminpu=0.92 daily="RU5_SA"
 
New "Load.BT_2806076_6277_M1" bus1="UC2806076.2.4" phases=1 conn=Delta model=2 kv=0.22 kw = 0.2871694 pf=0.92 status=variable vmaxpu=1.5 vminpu=0.92 daily="RU2_SA" 
New "Load.BT_2806076_6277_M2" bus1="UC2806076.2.4" phases=1 conn=Delta model=3 kv=0.22 kw = 0.2871694 pf=0.92 status=variable vmaxpu=1.5 vminpu=0.92 daily="RU2_SA"
 
New "Load.BT_2805410_6293_M1" bus1="UC2805410.2.4" phases=1 conn=Delta model=2 kv=0.22 kw = 0.0562373 pf=0.92 status=variable vmaxpu=1.5 vminpu=0.92 daily="RU2_SA" 
New "Load.BT_2805410_6293_M2" bus1="UC2805410.2.4" phases=1 conn=Delta model=3 kv=0.22 kw = 0.0562373 pf=0.92 status=variable vmaxpu=1.5 vminpu=0.92 daily="RU2_SA"
 
New "Load.BT_2818343_6294_M1" bus1="UC2818343.2.4" phases=1 conn=Delta model=2 kv=0.22 kw = 0.1764757 pf=0.92 status=variable vmaxpu=1.5 vminpu=0.92 daily="RU3_SA" 
New "Load.BT_2818343_6294_M2" bus1="UC2818343.2.4" phases=1 conn=Delta model=3 kv=0.22 kw = 0.1764757 pf=0.92 status=variable vmaxpu=1.5 vminpu=0.92 daily="RU3_SA"
 
New "Load.BT_2818345_6295_M1" bus1="UC2818345.1.4" phases=1 conn=Delta model=2 kv=0.22 kw = 0.0000000 pf=0.92 status=variable vmaxpu=1.5 vminpu=0.92 daily="RE2_SA" 
New "Load.BT_2818345_6295_M2" bus1="UC2818345.1.4" phases=1 conn=Delta model=3 kv=0.22 kw = 0.0000000 pf=0.92 status=variable vmaxpu=1.5 vminpu=0.92 daily="RE2_SA"
 
New "Load.BT_2818346_6296_M1" bus1="UC2818346.2.4" phases=1 conn=Delta model=2 kv=0.22 kw = 0.0000000 pf=0.92 status=variable vmaxpu=1.5 vminpu=0.92 daily="RU3_SA" 
New "Load.BT_2818346_6296_M2" bus1="UC2818346.2.4" phases=1 conn=Delta model=3 kv=0.22 kw = 0.0000000 pf=0.92 status=variable vmaxpu=1.5 vminpu=0.92 daily="RU3_SA"
 
New "Load.BT_2818350_6297_M1" bus1="UC2818350.1.2.3.4" phases=3 conn=Delta model=2 kv=0.38 kw = 4.2844247 pf=0.92 status=variable vmaxpu=1.5 vminpu=0.92 daily="RE7_SA" 
New "Load.BT_2818350_6297_M2" bus1="UC2818350.1.2.3.4" phases=3 conn=Delta model=3 kv=0.38 kw = 4.2844247 pf=0.92 status=variable vmaxpu=1.5 vminpu=0.92 daily="RE7_SA"
 
New "Load.BT_2819343_6298_M1" bus1="UC2819343.1.4" phases=1 conn=Delta model=2 kv=0.22 kw = 0.0146416 pf=0.92 status=variable vmaxpu=1.5 vminpu=0.92 daily="RU1_SA" 
New "Load.BT_2819343_6298_M2" bus1="UC2819343.1.4" phases=1 conn=Delta model=3 kv=0.22 kw = 0.0146416 pf=0.92 status=variable vmaxpu=1.5 vminpu=0.92 daily="RU1_SA"
 
New "Load.BT_2818339_6325_M1" bus1="UC2818339.1.4" phases=1 conn=Delta model=2 kv=0.22 kw = 0.0034492 pf=0.92 status=variable vmaxpu=1.5 vminpu=0.92 daily="CO2_SA" 
New "Load.BT_2818339_6325_M2" bus1="UC2818339.1.4" phases=1 conn=Delta model=3 kv=0.22 kw = 0.0034492 pf=0.92 status=variable vmaxpu=1.5 vminpu=0.92 daily="CO2_SA"
 
New "Load.BT_2806070_6326_M1" bus1="UC2806070.1.4" phases=1 conn=Delta model=2 kv=0.22 kw = 0.2599568 pf=0.92 status=variable vmaxpu=1.5 vminpu=0.92 daily="RU8_SA" 
New "Load.BT_2806070_6326_M2" bus1="UC2806070.1.4" phases=1 conn=Delta model=3 kv=0.22 kw = 0.2599568 pf=0.92 status=variable vmaxpu=1.5 vminpu=0.92 daily="RU8_SA"
 
New "Load.BT_2806071_6327_M1" bus1="UC2806071.1.4" phases=1 conn=Delta model=2 kv=0.22 kw = 0.0171504 pf=0.92 status=variable vmaxpu=1.5 vminpu=0.92 daily="RU2_SA" 
New "Load.BT_2806071_6327_M2" bus1="UC2806071.1.4" phases=1 conn=Delta model=3 kv=0.22 kw = 0.0171504 pf=0.92 status=variable vmaxpu=1.5 vminpu=0.92 daily="RU2_SA"
 
New "Load.BT_2806072_6328_M1" bus1="UC2806072.1.4" phases=1 conn=Delta model=2 kv=0.22 kw = 0.0058793 pf=0.92 status=variable vmaxpu=1.5 vminpu=0.92 daily="RU1_SA" 
New "Load.BT_2806072_6328_M2" bus1="UC2806072.1.4" phases=1 conn=Delta model=3 kv=0.22 kw = 0.0058793 pf=0.92 status=variable vmaxpu=1.5 vminpu=0.92 daily="RU1_SA"
 
New "Load.BT_2806073_6329_M1" bus1="UC2806073.1.4" phases=1 conn=Delta model=2 kv=0.22 kw = 0.3607885 pf=0.92 status=variable vmaxpu=1.5 vminpu=0.92 daily="RU8_SA" 
New "Load.BT_2806073_6329_M2" bus1="UC2806073.1.4" phases=1 conn=Delta model=3 kv=0.22 kw = 0.3607885 pf=0.92 status=variable vmaxpu=1.5 vminpu=0.92 daily="RU8_SA"
 
New "Load.BT_2806074_6330_M1" bus1="UC2806074.1.4" phases=1 conn=Delta model=2 kv=0.22 kw = 0.0085362 pf=0.92 status=variable vmaxpu=1.5 vminpu=0.92 daily="RU1_SA" 
New "Load.BT_2806074_6330_M2" bus1="UC2806074.1.4" phases=1 conn=Delta model=3 kv=0.22 kw = 0.0085362 pf=0.92 status=variable vmaxpu=1.5 vminpu=0.92 daily="RU1_SA"
 
New "Load.BT_2821691_6331_M1" bus1="UC2821691.3.4" phases=1 conn=Delta model=2 kv=0.22 kw = 0.2809854 pf=0.92 status=variable vmaxpu=1.5 vminpu=0.92 daily="RE5_SA" 
New "Load.BT_2821691_6331_M2" bus1="UC2821691.3.4" phases=1 conn=Delta model=3 kv=0.22 kw = 0.2809854 pf=0.92 status=variable vmaxpu=1.5 vminpu=0.92 daily="RE5_SA"
 
New "Load.BT_2821694_6332_M1" bus1="UC2821694.1.4" phases=1 conn=Delta model=2 kv=0.22 kw = 0.5703414 pf=0.92 status=variable vmaxpu=1.5 vminpu=0.92 daily="RU5_SA" 
New "Load.BT_2821694_6332_M2" bus1="UC2821694.1.4" phases=1 conn=Delta model=3 kv=0.22 kw = 0.5703414 pf=0.92 status=variable vmaxpu=1.5 vminpu=0.92 daily="RU5_SA"
 
New "Load.BT_2821695_6333_M1" bus1="UC2821695.1.4" phases=1 conn=Delta model=2 kv=0.22 kw = 0.4039918 pf=0.92 status=variable vmaxpu=1.5 vminpu=0.92 daily="RU5_SA" 
New "Load.BT_2821695_6333_M2" bus1="UC2821695.1.4" phases=1 conn=Delta model=3 kv=0.22 kw = 0.4039918 pf=0.92 status=variable vmaxpu=1.5 vminpu=0.92 daily="RU5_SA"
 
New "Load.BT_2822259_6334_M1" bus1="UC2822259.1.4" phases=1 conn=Delta model=2 kv=0.22 kw = 0.0028831 pf=0.92 status=variable vmaxpu=1.5 vminpu=0.92 daily="RU1_SA" 
New "Load.BT_2822259_6334_M2" bus1="UC2822259.1.4" phases=1 conn=Delta model=3 kv=0.22 kw = 0.0028831 pf=0.92 status=variable vmaxpu=1.5 vminpu=0.92 daily="RU1_SA"
 
New "Load.BT_2822261_6335_M1" bus1="UC2822261.1.4" phases=1 conn=Delta model=2 kv=0.22 kw = 0.2432479 pf=0.92 status=variable vmaxpu=1.5 vminpu=0.92 daily="RE2_SA" 
New "Load.BT_2822261_6335_M2" bus1="UC2822261.1.4" phases=1 conn=Delta model=3 kv=0.22 kw = 0.2432479 pf=0.92 status=variable vmaxpu=1.5 vminpu=0.92 daily="RE2_SA"
 
New "Load.BT_2822262_6336_M1" bus1="UC2822262.2.4" phases=1 conn=Delta model=2 kv=0.22 kw = 0.1901973 pf=0.92 status=variable vmaxpu=1.5 vminpu=0.92 daily="CO2_SA" 
New "Load.BT_2822262_6336_M2" bus1="UC2822262.2.4" phases=1 conn=Delta model=3 kv=0.22 kw = 0.1901973 pf=0.92 status=variable vmaxpu=1.5 vminpu=0.92 daily="CO2_SA"
 
New "Load.BT_2805398_6337_M1" bus1="UC2805398.1.4" phases=1 conn=Delta model=2 kv=0.22 kw = 0.2363803 pf=0.92 status=variable vmaxpu=1.5 vminpu=0.92 daily="RU7_SA" 
New "Load.BT_2805398_6337_M2" bus1="UC2805398.1.4" phases=1 conn=Delta model=3 kv=0.22 kw = 0.2363803 pf=0.92 status=variable vmaxpu=1.5 vminpu=0.92 daily="RU7_SA"
 
New "Load.BT_2805400_6338_M1" bus1="UC2805400.1.4" phases=1 conn=Delta model=2 kv=0.22 kw = 0.0670062 pf=0.92 status=variable vmaxpu=1.5 vminpu=0.92 daily="RU2_SA" 
New "Load.BT_2805400_6338_M2" bus1="UC2805400.1.4" phases=1 conn=Delta model=3 kv=0.22 kw = 0.0670062 pf=0.92 status=variable vmaxpu=1.5 vminpu=0.92 daily="RU2_SA"
 
New "Load.BT_2818330_6339_M1" bus1="UC2818330.2.4" phases=1 conn=Delta model=2 kv=0.22 kw = 0.2286163 pf=0.92 status=variable vmaxpu=1.5 vminpu=0.92 daily="RU3_SA" 
New "Load.BT_2818330_6339_M2" bus1="UC2818330.2.4" phases=1 conn=Delta model=3 kv=0.22 kw = 0.2286163 pf=0.92 status=variable vmaxpu=1.5 vminpu=0.92 daily="RU3_SA"
 
New "Load.BT_2818331_6340_M1" bus1="UC2818331.1.4" phases=1 conn=Delta model=2 kv=0.22 kw = 0.3113113 pf=0.92 status=variable vmaxpu=1.5 vminpu=0.92 daily="RU5_SA" 
New "Load.BT_2818331_6340_M2" bus1="UC2818331.1.4" phases=1 conn=Delta model=3 kv=0.22 kw = 0.3113113 pf=0.92 status=variable vmaxpu=1.5 vminpu=0.92 daily="RU5_SA"
 
New "Load.BT_2818332_6341_M1" bus1="UC2818332.1.4" phases=1 conn=Delta model=2 kv=0.22 kw = 0.2835892 pf=0.92 status=variable vmaxpu=1.5 vminpu=0.92 daily="RU8_SA" 
New "Load.BT_2818332_6341_M2" bus1="UC2818332.1.4" phases=1 conn=Delta model=3 kv=0.22 kw = 0.2835892 pf=0.92 status=variable vmaxpu=1.5 vminpu=0.92 daily="RU8_SA"
 
New "Load.BT_2818333_6342_M1" bus1="UC2818333.1.4" phases=1 conn=Delta model=2 kv=0.22 kw = 0.1286734 pf=0.92 status=variable vmaxpu=1.5 vminpu=0.92 daily="RU6_SA" 
New "Load.BT_2818333_6342_M2" bus1="UC2818333.1.4" phases=1 conn=Delta model=3 kv=0.22 kw = 0.1286734 pf=0.92 status=variable vmaxpu=1.5 vminpu=0.92 daily="RU6_SA"
 
New "Load.BT_2818335_6343_M1" bus1="UC2818335.1.4" phases=1 conn=Delta model=2 kv=0.22 kw = 0.3719101 pf=0.92 status=variable vmaxpu=1.5 vminpu=0.92 daily="RU5_SA" 
New "Load.BT_2818335_6343_M2" bus1="UC2818335.1.4" phases=1 conn=Delta model=3 kv=0.22 kw = 0.3719101 pf=0.92 status=variable vmaxpu=1.5 vminpu=0.92 daily="RU5_SA"
 
New "Load.BT_2818337_6344_M1" bus1="UC2818337.2.4" phases=1 conn=Delta model=2 kv=0.22 kw = 0.1729563 pf=0.92 status=variable vmaxpu=1.5 vminpu=0.92 daily="RU4_SA" 
New "Load.BT_2818337_6344_M2" bus1="UC2818337.2.4" phases=1 conn=Delta model=3 kv=0.22 kw = 0.1729563 pf=0.92 status=variable vmaxpu=1.5 vminpu=0.92 daily="RU4_SA"
 
New "Load.BT_2805395_6355_M1" bus1="UC2805395.2.4" phases=1 conn=Delta model=2 kv=0.22 kw = 0.3324296 pf=0.92 status=variable vmaxpu=1.5 vminpu=0.92 daily="RU8_SA" 
New "Load.BT_2805395_6355_M2" bus1="UC2805395.2.4" phases=1 conn=Delta model=3 kv=0.22 kw = 0.3324296 pf=0.92 status=variable vmaxpu=1.5 vminpu=0.92 daily="RU8_SA"
 
New "Load.BT_2805797_6366_M1" bus1="UC2805797.2.4" phases=1 conn=Delta model=2 kv=0.22 kw = 0.0402835 pf=0.92 status=variable vmaxpu=1.5 vminpu=0.92 daily="RU2_SA" 
New "Load.BT_2805797_6366_M2" bus1="UC2805797.2.4" phases=1 conn=Delta model=3 kv=0.22 kw = 0.0402835 pf=0.92 status=variable vmaxpu=1.5 vminpu=0.92 daily="RU2_SA"
 
New "Load.BT_2806068_6369_M1" bus1="UC2806068.2.4" phases=1 conn=Delta model=2 kv=0.22 kw = 0.1961713 pf=0.92 status=variable vmaxpu=1.5 vminpu=0.92 daily="RU7_SA" 
New "Load.BT_2806068_6369_M2" bus1="UC2806068.2.4" phases=1 conn=Delta model=3 kv=0.22 kw = 0.1961713 pf=0.92 status=variable vmaxpu=1.5 vminpu=0.92 daily="RU7_SA"
 
New "Load.BT_2805796_6416_M1" bus1="UC2805796.1.2.4" phases=1 conn=Delta model=2 kv=0.44 kw = 0.1647235 pf=0.92 status=variable vmaxpu=1.5 vminpu=0.92 daily="RU2_SA" 
New "Load.BT_2805796_6416_M2" bus1="UC2805796.1.2.4" phases=1 conn=Delta model=3 kv=0.44 kw = 0.1647235 pf=0.92 status=variable vmaxpu=1.5 vminpu=0.92 daily="RU2_SA"
 
New "Load.BT_2821297_6417_M1" bus1="UC2821297.2.4" phases=1 conn=Delta model=2 kv=0.22 kw = 0.3101231 pf=0.92 status=variable vmaxpu=1.5 vminpu=0.92 daily="RU5_SA" 
New "Load.BT_2821297_6417_M2" bus1="UC2821297.2.4" phases=1 conn=Delta model=3 kv=0.22 kw = 0.3101231 pf=0.92 status=variable vmaxpu=1.5 vminpu=0.92 daily="RU5_SA"
 
New "Load.BT_2821676_6418_M1" bus1="UC2821676.2.4" phases=1 conn=Delta model=2 kv=0.22 kw = 0.0031092 pf=0.92 status=variable vmaxpu=1.5 vminpu=0.92 daily="RU1_SA" 
New "Load.BT_2821676_6418_M2" bus1="UC2821676.2.4" phases=1 conn=Delta model=3 kv=0.22 kw = 0.0031092 pf=0.92 status=variable vmaxpu=1.5 vminpu=0.92 daily="RU1_SA"
 
New "Load.BT_2821681_6419_M1" bus1="UC2821681.1.4" phases=1 conn=Delta model=2 kv=0.22 kw = 0.3678545 pf=0.92 status=variable vmaxpu=1.5 vminpu=0.92 daily="RU6_SA" 
New "Load.BT_2821681_6419_M2" bus1="UC2821681.1.4" phases=1 conn=Delta model=3 kv=0.22 kw = 0.3678545 pf=0.92 status=variable vmaxpu=1.5 vminpu=0.92 daily="RU6_SA"
 
New "Load.BT_2821687_6420_M1" bus1="UC2821687.1.4" phases=1 conn=Delta model=2 kv=0.22 kw = 0.0917347 pf=0.92 status=variable vmaxpu=1.5 vminpu=0.92 daily="RU2_SA" 
New "Load.BT_2821687_6420_M2" bus1="UC2821687.1.4" phases=1 conn=Delta model=3 kv=0.22 kw = 0.0917347 pf=0.92 status=variable vmaxpu=1.5 vminpu=0.92 daily="RU2_SA"
 
New "Load.BT_2805389_6421_M1" bus1="UC2805389.2.4" phases=1 conn=Delta model=2 kv=0.22 kw = 0.0131718 pf=0.92 status=variable vmaxpu=1.5 vminpu=0.92 daily="RU1_SA" 
New "Load.BT_2805389_6421_M2" bus1="UC2805389.2.4" phases=1 conn=Delta model=3 kv=0.22 kw = 0.0131718 pf=0.92 status=variable vmaxpu=1.5 vminpu=0.92 daily="RU1_SA"
 
New "Load.BT_2805390_6422_M1" bus1="UC2805390.1.2.4" phases=1 conn=Delta model=2 kv=0.44 kw = 0.4537428 pf=0.92 status=variable vmaxpu=1.5 vminpu=0.92 daily="RU8_SA" 
New "Load.BT_2805390_6422_M2" bus1="UC2805390.1.2.4" phases=1 conn=Delta model=3 kv=0.44 kw = 0.4537428 pf=0.92 status=variable vmaxpu=1.5 vminpu=0.92 daily="RU8_SA"
 
New "Load.BT_2805391_6423_M1" bus1="UC2805391.1.4" phases=1 conn=Delta model=2 kv=0.22 kw = 0.2510018 pf=0.92 status=variable vmaxpu=1.5 vminpu=0.92 daily="RU7_SA" 
New "Load.BT_2805391_6423_M2" bus1="UC2805391.1.4" phases=1 conn=Delta model=3 kv=0.22 kw = 0.2510018 pf=0.92 status=variable vmaxpu=1.5 vminpu=0.92 daily="RU7_SA"
 
New "Load.BT_2805392_6424_M1" bus1="UC2805392.2.4" phases=1 conn=Delta model=2 kv=0.22 kw = 0.0024637 pf=0.92 status=variable vmaxpu=1.5 vminpu=0.92 daily="CO2_SA" 
New "Load.BT_2805392_6424_M2" bus1="UC2805392.2.4" phases=1 conn=Delta model=3 kv=0.22 kw = 0.0024637 pf=0.92 status=variable vmaxpu=1.5 vminpu=0.92 daily="CO2_SA"
 
New "Load.BT_2818315_6425_M1" bus1="UC2818315.1.2.4" phases=1 conn=Delta model=2 kv=0.44 kw = 0.0693639 pf=0.92 status=variable vmaxpu=1.5 vminpu=0.92 daily="RU1_SA" 
New "Load.BT_2818315_6425_M2" bus1="UC2818315.1.2.4" phases=1 conn=Delta model=3 kv=0.44 kw = 0.0693639 pf=0.92 status=variable vmaxpu=1.5 vminpu=0.92 daily="RU1_SA"
 
New "Load.BT_2818316_6426_M1" bus1="UC2818316.1.4" phases=1 conn=Delta model=2 kv=0.22 kw = 0.3192353 pf=0.92 status=variable vmaxpu=1.5 vminpu=0.92 daily="RU7_SA" 
New "Load.BT_2818316_6426_M2" bus1="UC2818316.1.4" phases=1 conn=Delta model=3 kv=0.22 kw = 0.3192353 pf=0.92 status=variable vmaxpu=1.5 vminpu=0.92 daily="RU7_SA"
 
New "Load.BT_2818317_6427_M1" bus1="UC2818317.1.2.4" phases=1 conn=Delta model=2 kv=0.44 kw = 0.8554942 pf=0.92 status=variable vmaxpu=1.5 vminpu=0.92 daily="RU8_SA" 
New "Load.BT_2818317_6427_M2" bus1="UC2818317.1.2.4" phases=1 conn=Delta model=3 kv=0.44 kw = 0.8554942 pf=0.92 status=variable vmaxpu=1.5 vminpu=0.92 daily="RU8_SA"
 
New "Load.BT_2818321_6428_M1" bus1="UC2818321.1.4" phases=1 conn=Delta model=2 kv=0.22 kw = 0.3405883 pf=0.92 status=variable vmaxpu=1.5 vminpu=0.92 daily="RE4_SA" 
New "Load.BT_2818321_6428_M2" bus1="UC2818321.1.4" phases=1 conn=Delta model=3 kv=0.22 kw = 0.3405883 pf=0.92 status=variable vmaxpu=1.5 vminpu=0.92 daily="RE4_SA"
 
New "Load.BT_2818322_6429_M1" bus1="UC2818322.1.4" phases=1 conn=Delta model=2 kv=0.22 kw = 0.5994667 pf=0.92 status=variable vmaxpu=1.5 vminpu=0.92 daily="RU6_SA" 
New "Load.BT_2818322_6429_M2" bus1="UC2818322.1.4" phases=1 conn=Delta model=3 kv=0.22 kw = 0.5994667 pf=0.92 status=variable vmaxpu=1.5 vminpu=0.92 daily="RU6_SA"
 
New "Load.BT_2818329_6430_M1" bus1="UC2818329.1.4" phases=1 conn=Delta model=2 kv=0.22 kw = 0.0141328 pf=0.92 status=variable vmaxpu=1.5 vminpu=0.92 daily="RU1_SA" 
New "Load.BT_2818329_6430_M2" bus1="UC2818329.1.4" phases=1 conn=Delta model=3 kv=0.22 kw = 0.0141328 pf=0.92 status=variable vmaxpu=1.5 vminpu=0.92 daily="RU1_SA"
 
New "Load.BT_2805792_6450_M1" bus1="UC2805792.1.4" phases=1 conn=Delta model=2 kv=0.22 kw = 0.0450828 pf=0.92 status=variable vmaxpu=1.5 vminpu=0.92 daily="RU7_SA" 
New "Load.BT_2805792_6450_M2" bus1="UC2805792.1.4" phases=1 conn=Delta model=3 kv=0.22 kw = 0.0450828 pf=0.92 status=variable vmaxpu=1.5 vminpu=0.92 daily="RU7_SA"
 
New "Load.BT_2805384_6458_M1" bus1="UC2805384.2.4" phases=1 conn=Delta model=2 kv=0.22 kw = 0.0104018 pf=0.92 status=variable vmaxpu=1.5 vminpu=0.92 daily="RU1_SA" 
New "Load.BT_2805384_6458_M2" bus1="UC2805384.2.4" phases=1 conn=Delta model=3 kv=0.22 kw = 0.0104018 pf=0.92 status=variable vmaxpu=1.5 vminpu=0.92 daily="RU1_SA"
 
New "Load.BT_2805385_6459_M1" bus1="UC2805385.1.4" phases=1 conn=Delta model=2 kv=0.22 kw = 0.0000000 pf=0.92 status=variable vmaxpu=1.5 vminpu=0.92 daily="RU2_SA" 
New "Load.BT_2805385_6459_M2" bus1="UC2805385.1.4" phases=1 conn=Delta model=3 kv=0.22 kw = 0.0000000 pf=0.92 status=variable vmaxpu=1.5 vminpu=0.92 daily="RU2_SA"
 
New "Load.BT_2805386_6460_M1" bus1="UC2805386.1.4" phases=1 conn=Delta model=2 kv=0.22 kw = 0.0350946 pf=0.92 status=variable vmaxpu=1.5 vminpu=0.92 daily="RU3_SA" 
New "Load.BT_2805386_6460_M2" bus1="UC2805386.1.4" phases=1 conn=Delta model=3 kv=0.22 kw = 0.0350946 pf=0.92 status=variable vmaxpu=1.5 vminpu=0.92 daily="RU3_SA"
 
New "Load.BT_2825862_6470_M1" bus1="UC2825862.1.2.4" phases=1 conn=Delta model=2 kv=0.44 kw = 0.1257864 pf=0.92 status=variable vmaxpu=1.5 vminpu=0.92 daily="RU4_SA" 
New "Load.BT_2825862_6470_M2" bus1="UC2825862.1.2.4" phases=1 conn=Delta model=3 kv=0.44 kw = 0.1257864 pf=0.92 status=variable vmaxpu=1.5 vminpu=0.92 daily="RU4_SA"
 
New "Load.BT_2825865_6471_M1" bus1="UC2825865.1.4" phases=1 conn=Delta model=2 kv=0.22 kw = 0.1223298 pf=0.92 status=variable vmaxpu=1.5 vminpu=0.92 daily="RU3_SA" 
New "Load.BT_2825865_6471_M2" bus1="UC2825865.1.4" phases=1 conn=Delta model=3 kv=0.22 kw = 0.1223298 pf=0.92 status=variable vmaxpu=1.5 vminpu=0.92 daily="RU3_SA"
 
New "Load.BT_2826216_6472_M1" bus1="UC2826216.1.4" phases=1 conn=Delta model=2 kv=0.22 kw = 0.7725730 pf=0.92 status=variable vmaxpu=1.5 vminpu=0.92 daily="RE6_SA" 
New "Load.BT_2826216_6472_M2" bus1="UC2826216.1.4" phases=1 conn=Delta model=3 kv=0.22 kw = 0.7725730 pf=0.92 status=variable vmaxpu=1.5 vminpu=0.92 daily="RE6_SA"
 
New "Load.BT_2820650_6588_M1" bus1="UC2820650.1.4" phases=1 conn=Delta model=2 kv=0.22 kw = 0.1781974 pf=0.92 status=variable vmaxpu=1.5 vminpu=0.92 daily="RU4_SA" 
New "Load.BT_2820650_6588_M2" bus1="UC2820650.1.4" phases=1 conn=Delta model=3 kv=0.22 kw = 0.1781974 pf=0.92 status=variable vmaxpu=1.5 vminpu=0.92 daily="RU4_SA"
 
New "Load.BT_2821023_6589_M1" bus1="UC2821023.1.4" phases=1 conn=Delta model=2 kv=0.22 kw = 0.0080274 pf=0.92 status=variable vmaxpu=1.5 vminpu=0.92 daily="RU1_SA" 
New "Load.BT_2821023_6589_M2" bus1="UC2821023.1.4" phases=1 conn=Delta model=3 kv=0.22 kw = 0.0080274 pf=0.92 status=variable vmaxpu=1.5 vminpu=0.92 daily="RU1_SA"
 
New "Load.BT_2821025_6590_M1" bus1="UC2821025.1.4" phases=1 conn=Delta model=2 kv=0.22 kw = 0.5064498 pf=0.92 status=variable vmaxpu=1.5 vminpu=0.92 daily="RE2_SA" 
New "Load.BT_2821025_6590_M2" bus1="UC2821025.1.4" phases=1 conn=Delta model=3 kv=0.22 kw = 0.5064498 pf=0.92 status=variable vmaxpu=1.5 vminpu=0.92 daily="RE2_SA"
 
New "Load.BT_2821026_6591_M1" bus1="UC2821026.1.4" phases=1 conn=Delta model=2 kv=0.22 kw = 0.0742000 pf=0.92 status=variable vmaxpu=1.5 vminpu=0.92 daily="RU3_SA" 
New "Load.BT_2821026_6591_M2" bus1="UC2821026.1.4" phases=1 conn=Delta model=3 kv=0.22 kw = 0.0742000 pf=0.92 status=variable vmaxpu=1.5 vminpu=0.92 daily="RU3_SA"
 
New "Load.BT_2821288_6592_M1" bus1="UC2821288.2.4" phases=1 conn=Delta model=2 kv=0.22 kw = 0.2426747 pf=0.92 status=variable vmaxpu=1.5 vminpu=0.92 daily="RE6_SA" 
New "Load.BT_2821288_6592_M2" bus1="UC2821288.2.4" phases=1 conn=Delta model=3 kv=0.22 kw = 0.2426747 pf=0.92 status=variable vmaxpu=1.5 vminpu=0.92 daily="RE6_SA"
 
New "Load.BT_2821290_6593_M1" bus1="UC2821290.3.4" phases=1 conn=Delta model=2 kv=0.22 kw = 0.2745338 pf=0.92 status=variable vmaxpu=1.5 vminpu=0.92 daily="RE8_SA" 
New "Load.BT_2821290_6593_M2" bus1="UC2821290.3.4" phases=1 conn=Delta model=3 kv=0.22 kw = 0.2745338 pf=0.92 status=variable vmaxpu=1.5 vminpu=0.92 daily="RE8_SA"
 
New "Load.BT_2819397_6629_M1" bus1="UC2819397.1.4" phases=1 conn=Delta model=2 kv=0.22 kw = 0.0000000 pf=0.92 status=variable vmaxpu=1.5 vminpu=0.92 daily="CO7_SA" 
New "Load.BT_2819397_6629_M2" bus1="UC2819397.1.4" phases=1 conn=Delta model=3 kv=0.22 kw = 0.0000000 pf=0.92 status=variable vmaxpu=1.5 vminpu=0.92 daily="CO7_SA"
 
New "Load.BT_2819399_6630_M1" bus1="UC2819399.3.4" phases=1 conn=Delta model=2 kv=0.22 kw = 0.3554289 pf=0.92 status=variable vmaxpu=1.5 vminpu=0.92 daily="RE7_SA" 
New "Load.BT_2819399_6630_M2" bus1="UC2819399.3.4" phases=1 conn=Delta model=3 kv=0.22 kw = 0.3554289 pf=0.92 status=variable vmaxpu=1.5 vminpu=0.92 daily="RE7_SA"
 
New "Load.BT_2819400_6631_M1" bus1="UC2819400.2.4" phases=1 conn=Delta model=2 kv=0.22 kw = 0.3935610 pf=0.92 status=variable vmaxpu=1.5 vminpu=0.92 daily="RU7_SA" 
New "Load.BT_2819400_6631_M2" bus1="UC2819400.2.4" phases=1 conn=Delta model=3 kv=0.22 kw = 0.3935610 pf=0.92 status=variable vmaxpu=1.5 vminpu=0.92 daily="RU7_SA"
 
New "Load.BT_2820643_6632_M1" bus1="UC2820643.2.4" phases=1 conn=Delta model=2 kv=0.22 kw = 0.2281365 pf=0.92 status=variable vmaxpu=1.5 vminpu=0.92 daily="RU5_SA" 
New "Load.BT_2820643_6632_M2" bus1="UC2820643.2.4" phases=1 conn=Delta model=3 kv=0.22 kw = 0.2281365 pf=0.92 status=variable vmaxpu=1.5 vminpu=0.92 daily="RU5_SA"
 
New "Load.BT_2820646_6633_M1" bus1="UC2820646.2.4" phases=1 conn=Delta model=2 kv=0.22 kw = 0.0000000 pf=0.92 status=variable vmaxpu=1.5 vminpu=0.92 daily="RU5_SA" 
New "Load.BT_2820646_6633_M2" bus1="UC2820646.2.4" phases=1 conn=Delta model=3 kv=0.22 kw = 0.0000000 pf=0.92 status=variable vmaxpu=1.5 vminpu=0.92 daily="RU5_SA"
 
New "Load.BT_2805776_6663_M1" bus1="UC2805776.2.4" phases=1 conn=Delta model=2 kv=0.22 kw = 0.0718889 pf=0.92 status=variable vmaxpu=1.5 vminpu=0.92 daily="RU7_SA" 
New "Load.BT_2805776_6663_M2" bus1="UC2805776.2.4" phases=1 conn=Delta model=3 kv=0.22 kw = 0.0718889 pf=0.92 status=variable vmaxpu=1.5 vminpu=0.92 daily="RU7_SA"
 
New "Load.BT_2805257_6671_M1" bus1="UC2805257.1.2.4" phases=1 conn=Delta model=2 kv=0.38 kw = 0.9302954 pf=0.92 status=variable vmaxpu=1.5 vminpu=0.92 daily="RU4_SA" 
New "Load.BT_2805257_6671_M2" bus1="UC2805257.1.2.4" phases=1 conn=Delta model=3 kv=0.38 kw = 0.9302954 pf=0.92 status=variable vmaxpu=1.5 vminpu=0.92 daily="RU4_SA"
 
New "Load.BT_2805363_6690_M1" bus1="UC2805363.2.4" phases=1 conn=Delta model=2 kv=0.22 kw = 0.0000000 pf=0.92 status=variable vmaxpu=1.5 vminpu=0.92 daily="RE2_SA" 
New "Load.BT_2805363_6690_M2" bus1="UC2805363.2.4" phases=1 conn=Delta model=3 kv=0.22 kw = 0.0000000 pf=0.92 status=variable vmaxpu=1.5 vminpu=0.92 daily="RE2_SA"
 
New "Load.BT_2805359_6710_M1" bus1="UC2805359.1.4" phases=1 conn=Delta model=2 kv=0.22 kw = 0.4574613 pf=0.92 status=variable vmaxpu=1.5 vminpu=0.92 daily="RU5_SA" 
New "Load.BT_2805359_6710_M2" bus1="UC2805359.1.4" phases=1 conn=Delta model=3 kv=0.22 kw = 0.4574613 pf=0.92 status=variable vmaxpu=1.5 vminpu=0.92 daily="RU5_SA"
 
New "Load.BT_2805360_6711_M1" bus1="UC2805360.1.4" phases=1 conn=Delta model=2 kv=0.22 kw = 0.2270707 pf=0.92 status=variable vmaxpu=1.5 vminpu=0.92 daily="RU6_SA" 
New "Load.BT_2805360_6711_M2" bus1="UC2805360.1.4" phases=1 conn=Delta model=3 kv=0.22 kw = 0.2270707 pf=0.92 status=variable vmaxpu=1.5 vminpu=0.92 daily="RU6_SA"
 
New "Load.BT_2805255_6732_M1" bus1="UC2805255.1.4" phases=1 conn=Delta model=2 kv=0.22 kw = 0.2316121 pf=0.92 status=variable vmaxpu=1.5 vminpu=0.92 daily="RU6_SA" 
New "Load.BT_2805255_6732_M2" bus1="UC2805255.1.4" phases=1 conn=Delta model=3 kv=0.22 kw = 0.2316121 pf=0.92 status=variable vmaxpu=1.5 vminpu=0.92 daily="RU6_SA"
 
New "Load.BT_2805256_6733_M1" bus1="UC2805256.1.2.4" phases=1 conn=Delta model=2 kv=0.44 kw = 0.5653632 pf=0.92 status=variable vmaxpu=1.5 vminpu=0.92 daily="RU7_SA" 
New "Load.BT_2805256_6733_M2" bus1="UC2805256.1.2.4" phases=1 conn=Delta model=3 kv=0.44 kw = 0.5653632 pf=0.92 status=variable vmaxpu=1.5 vminpu=0.92 daily="RU7_SA"
 
New "Load.BT_2805357_6743_M1" bus1="UC2805357.1.2.3.4" phases=3 conn=Delta model=2 kv=0.38 kw = 0.9177455 pf=0.92 status=variable vmaxpu=1.5 vminpu=0.92 daily="RU2_SA" 
New "Load.BT_2805357_6743_M2" bus1="UC2805357.1.2.3.4" phases=3 conn=Delta model=3 kv=0.38 kw = 0.9177455 pf=0.92 status=variable vmaxpu=1.5 vminpu=0.92 daily="RU2_SA"
 
New "Load.BT_2805358_6744_M1" bus1="UC2805358.1.4" phases=1 conn=Delta model=2 kv=0.22 kw = 0.1815498 pf=0.92 status=variable vmaxpu=1.5 vminpu=0.92 daily="RU7_SA" 
New "Load.BT_2805358_6744_M2" bus1="UC2805358.1.4" phases=1 conn=Delta model=3 kv=0.22 kw = 0.1815498 pf=0.92 status=variable vmaxpu=1.5 vminpu=0.92 daily="RU7_SA"
 
New "Load.BT_2805310_6753_M1" bus1="UC2805310.2.4" phases=1 conn=Delta model=2 kv=0.22 kw = 0.0275307 pf=0.92 status=variable vmaxpu=1.5 vminpu=0.92 daily="RU1_SA" 
New "Load.BT_2805310_6753_M2" bus1="UC2805310.2.4" phases=1 conn=Delta model=3 kv=0.22 kw = 0.0275307 pf=0.92 status=variable vmaxpu=1.5 vminpu=0.92 daily="RU1_SA"
 
New "Load.BT_2805311_6754_M1" bus1="UC2805311.2.4" phases=1 conn=Delta model=2 kv=0.22 kw = 0.1260397 pf=0.92 status=variable vmaxpu=1.5 vminpu=0.92 daily="RU8_SA" 
New "Load.BT_2805311_6754_M2" bus1="UC2805311.2.4" phases=1 conn=Delta model=3 kv=0.22 kw = 0.1260397 pf=0.92 status=variable vmaxpu=1.5 vminpu=0.92 daily="RU8_SA"
 
New "Load.BT_2805313_6755_M1" bus1="UC2805313.1.2.4" phases=1 conn=Delta model=2 kv=0.44 kw = 1.0488274 pf=0.92 status=variable vmaxpu=1.5 vminpu=0.92 daily="RU3_SA" 
New "Load.BT_2805313_6755_M2" bus1="UC2805313.1.2.4" phases=1 conn=Delta model=3 kv=0.44 kw = 1.0488274 pf=0.92 status=variable vmaxpu=1.5 vminpu=0.92 daily="RU3_SA"
 
New "Load.BT_2805314_6756_M1" bus1="UC2805314.1.2.4" phases=1 conn=Delta model=2 kv=0.44 kw = 0.2914667 pf=0.92 status=variable vmaxpu=1.5 vminpu=0.92 daily="RU8_SA" 
New "Load.BT_2805314_6756_M2" bus1="UC2805314.1.2.4" phases=1 conn=Delta model=3 kv=0.44 kw = 0.2914667 pf=0.92 status=variable vmaxpu=1.5 vminpu=0.92 daily="RU8_SA"
 
New "Load.BT_2805247_6760_M1" bus1="UC2805247.1.4" phases=1 conn=Delta model=2 kv=0.22 kw = 0.3826004 pf=0.92 status=variable vmaxpu=1.5 vminpu=0.92 daily="RU4_SA" 
New "Load.BT_2805247_6760_M2" bus1="UC2805247.1.4" phases=1 conn=Delta model=3 kv=0.22 kw = 0.3826004 pf=0.92 status=variable vmaxpu=1.5 vminpu=0.92 daily="RU4_SA"
 
New "Load.BT_2805248_6761_M1" bus1="UC2805248.2.4" phases=1 conn=Delta model=2 kv=0.22 kw = 0.2437226 pf=0.92 status=variable vmaxpu=1.5 vminpu=0.92 daily="RU6_SA" 
New "Load.BT_2805248_6761_M2" bus1="UC2805248.2.4" phases=1 conn=Delta model=3 kv=0.22 kw = 0.2437226 pf=0.92 status=variable vmaxpu=1.5 vminpu=0.92 daily="RU6_SA"
 
New "Load.BT_2805249_6762_M1" bus1="UC2805249.2.4" phases=1 conn=Delta model=2 kv=0.22 kw = 0.0124934 pf=0.92 status=variable vmaxpu=1.5 vminpu=0.92 daily="RU1_SA" 
New "Load.BT_2805249_6762_M2" bus1="UC2805249.2.4" phases=1 conn=Delta model=3 kv=0.22 kw = 0.0124934 pf=0.92 status=variable vmaxpu=1.5 vminpu=0.92 daily="RU1_SA"
 
New "Load.BT_2805353_6783_M1" bus1="UC2805353.1.4" phases=1 conn=Delta model=2 kv=0.22 kw = 0.0745843 pf=0.92 status=variable vmaxpu=1.5 vminpu=0.92 daily="RU2_SA" 
New "Load.BT_2805353_6783_M2" bus1="UC2805353.1.4" phases=1 conn=Delta model=3 kv=0.22 kw = 0.0745843 pf=0.92 status=variable vmaxpu=1.5 vminpu=0.92 daily="RU2_SA"
...